22
 generated by VMD
 N         1.278628       -1.023071       -2.134406
 H         1.649590       -0.129145       -1.831228
 C        -0.114614       -1.284936       -1.838723
 H        -0.791751       -0.897209       -2.666908
 C        -0.369770       -2.769596       -1.602636
 C        -0.490324       -0.538300       -0.542273
 H        -1.419347       -2.915260       -1.316889
 H        -0.155281       -3.324308       -2.517340
 H         0.280931       -3.144834       -0.798456
 O        -1.541544        0.114081       -0.459174
 C         2.006252       -1.749619       -3.061445
 C         3.400045       -1.250628       -3.384889
 H         3.976877       -1.118560       -2.461850
 H         3.326155       -0.293630       -3.914641
 H         3.889095       -1.987467       -4.025494
 O         1.544076       -2.769071       -3.594061
 N         0.371326       -0.615465        0.529193
 H         1.191093       -1.207099        0.484841
 C         0.040885       -0.012237        1.786224
 H         0.855571        0.675836        2.121855
 H        -0.894928        0.566811        1.691620
 H        -0.099189       -0.787683        2.579612
